/*---------------------------------------------------------------------------*\
| =========                 |                                                 |
| \\      /  F ield         | OpenFOAM: The Open Source CFD Toolbox           |
|  \\    /   O peration     | Version:  1.4                                   |
|   \\  /    A nd           | Web:      http://www.openfoam.org               |
|    \\/     M anipulation  |                                                 |
\*---------------------------------------------------------------------------*/

// Field Dictionary

FoamFile
{
    version         2.0;
    format          ascii;
    class           volScalarField;
    object          pd;
}

// * * * * * * * * * * * * * * * * * * * * * * * * * * * * * * * * * * * * * //


dimensions      [0 0 0 0 0 0 0];


//internalField	uniform 25;


internalField   #codeStream
    {
	codeInclude
	#{
	    #include "fvCFD.H"
	#};

	codeOptions
	#{
	    -I$(LIB_SRC)/finiteVolume/lnInclude \
	    -I$(LIB_SRC)/meshTools/lnInclude
	#};

	codeLibs
	#{
	    -lmeshTools \
	    -lfiniteVolume
	 #};

	code
	#{
	    const IOdictionary& d = static_cast<const IOdictionary&>(dict);
	    const fvMesh& mesh = refCast<const fvMesh>(d.db());

	    scalarField pd(mesh.nCells(), 0.);
		scalar pi = constant::mathematical::pi;

	    forAll(pd, i)
	    {
		const scalar x = mesh.C()[i][0];
		const scalar y = mesh.C()[i][1];

		 
                   pd[i] = (1.0/3)-12*(   Foam::pow(x-0.5,2.0)+Foam::pow(y-0.5,2.0)  );  

	    }

	    pd.writeEntry("", os);
	#};

    };

boundaryField
{
/*
    leftWall        
    {
        //type            zeroGradient;
	type		fixedValue;
	value		uniform 0;
    }

    rightWall       
    {
        //type            zeroGradient;
	type		fixedValue;
	value		uniform 0; 
    }

    topWall       
    {  
        type            fixedValue;
        value           uniform 0; 
     }

    bottomWall
    {
	type		fixedValue;
	value		uniform 0;
    }
*/
    dirichletBoundary
    {
	type		zeroGradient;
	
    }

    backAndFront           
    {
        type            empty;
    }
    
}
// ************************************************************************* //
